Version 4
SHEET 1 4164 740
WIRE 384 96 368 96
WIRE 416 96 384 96
WIRE 512 96 496 96
WIRE 560 96 512 96
WIRE 672 96 640 96
WIRE 752 96 672 96
WIRE 848 96 752 96
WIRE 944 96 848 96
WIRE 1056 96 944 96
WIRE 1136 96 1056 96
WIRE 1232 96 1136 96
WIRE 1312 96 1232 96
WIRE 1440 96 1312 96
WIRE 1568 96 1440 96
WIRE 1568 112 1568 96
WIRE 1440 128 1440 96
WIRE 1232 144 1232 96
WIRE 1648 176 1568 176
WIRE 1056 192 1056 96
WIRE 848 208 848 96
WIRE 1440 240 1440 208
WIRE 1568 240 1440 240
WIRE 1648 240 1648 176
WIRE 1680 240 1648 240
WIRE 1568 256 1568 240
WIRE 1056 288 1056 272
WIRE 1056 288 944 288
WIRE 1088 288 1056 288
WIRE 1232 288 1232 224
WIRE 1328 288 1232 288
WIRE 1376 288 1328 288
WIRE 1648 288 1648 240
WIRE 1696 288 1648 288
WIRE 512 336 448 336
WIRE 560 336 512 336
WIRE 672 336 624 336
WIRE 848 336 848 288
WIRE 848 336 672 336
WIRE 880 336 848 336
WIRE 1568 336 1568 320
WIRE 1568 336 1440 336
WIRE 1328 368 1328 288
WIRE 1056 400 1056 288
WIRE 1232 400 1232 288
WIRE 864 432 816 432
WIRE 944 432 944 384
WIRE 944 432 928 432
WIRE 512 448 512 336
WIRE 512 448 448 448
WIRE 816 464 816 432
WIRE 944 464 944 432
WIRE 512 512 512 448
WIRE 672 512 672 336
FLAG 16 208 0
FLAG 16 128 24V
FLAG 368 96 24V
FLAG 384 160 0
FLAG 512 160 0
FLAG 672 160 0
FLAG 752 160 0
FLAG 368 336 INL
IOPIN 368 336 In
FLAG 368 448 INR
IOPIN 368 448 In
FLAG 512 592 0
FLAG 672 592 0
FLAG 816 544 0
FLAG 944 544 0
FLAG 1056 464 0
FLAG 944 160 0
FLAG 1136 160 0
FLAG 1312 160 0
FLAG 1232 480 0
FLAG 1328 432 0
FLAG 1440 416 0
FLAG 1680 240 ANT
IOPIN 1680 240 Out
FLAG -32 352 INL
IOPIN -32 352 In
FLAG -32 432 0
FLAG 1696 368 0
SYMBOL voltage 16 112 R0
WINDOW 123 0 0 Left 0
WINDOW 39 0 0 Left 0
SYMATTR InstName V1
SYMATTR Value 12
SYMBOL res 512 80 R90
WINDOW 0 0 56 VBottom 2
WINDOW 3 32 56 VTop 2
SYMATTR InstName R1
SYMATTR Value 100
SYMBOL cap 368 96 R0
SYMATTR InstName C1
SYMATTR Value 220µ
SYMBOL res 656 80 R90
WINDOW 0 0 56 VBottom 2
WINDOW 3 32 56 VTop 2
SYMATTR InstName R2
SYMATTR Value 100
SYMBOL cap 496 96 R0
SYMATTR InstName C2
SYMATTR Value 470µ
SYMBOL cap 656 96 R0
SYMATTR InstName C3
SYMATTR Value 470µ
SYMBOL cap 736 96 R0
SYMATTR InstName C4
SYMATTR Value 1n
SYMBOL res 464 320 R90
WINDOW 0 0 56 VBottom 2
WINDOW 3 32 56 VTop 2
SYMATTR InstName R3
SYMATTR Value 47k
SYMBOL res 464 432 R90
WINDOW 0 0 56 VBottom 2
WINDOW 3 32 56 VTop 2
SYMATTR InstName R4
SYMATTR Value 47k
SYMBOL res 528 608 R180
WINDOW 0 36 76 Left 2
WINDOW 3 36 40 Left 2
SYMATTR InstName R5
SYMATTR Value 3.9k
SYMBOL res 688 608 R180
WINDOW 0 36 76 Left 2
WINDOW 3 36 40 Left 2
SYMATTR InstName R6
SYMATTR Value 47k
SYMBOL res 864 304 R180
WINDOW 0 36 76 Left 2
WINDOW 3 36 40 Left 2
SYMATTR InstName R7
SYMATTR Value 220k
SYMBOL cap 624 320 R90
WINDOW 0 0 32 VBottom 2
WINDOW 3 32 32 VTop 2
SYMATTR InstName C5
SYMATTR Value 1µ
SYMBOL npn 880 288 R0
SYMATTR InstName Q1
SYMATTR Value BC547C
SYMBOL cap 928 96 R0
SYMATTR InstName C6
SYMATTR Value 1n
SYMBOL cap 1120 96 R0
SYMATTR InstName C7
SYMATTR Value 1n
SYMBOL cap 1296 96 R0
SYMATTR InstName C8
SYMATTR Value 1n
SYMBOL res 1072 288 R180
WINDOW 0 36 76 Left 2
WINDOW 3 36 40 Left 2
SYMATTR InstName R8
SYMATTR Value 6.8k
SYMBOL res 800 448 R0
SYMATTR InstName R9
SYMATTR Value 470
SYMBOL res 928 448 R0
SYMATTR InstName R10
SYMATTR Value 4.7k
SYMBOL cap 864 448 R270
WINDOW 0 32 32 VTop 2
WINDOW 3 0 32 VBottom 2
SYMATTR InstName C9
SYMATTR Value 10n
SYMBOL cap 1040 400 R0
SYMATTR InstName C10
SYMATTR Value 220p
SYMBOL cap 1152 272 R90
WINDOW 0 0 32 VBottom 2
WINDOW 3 32 32 VTop 2
SYMATTR InstName C11
SYMATTR Value 4.7µ
SYMBOL res 1248 272 R90
WINDOW 0 0 56 VBottom 2
WINDOW 3 32 56 VTop 2
SYMATTR InstName R11
SYMATTR Value 4.7k
SYMBOL res 1216 128 R0
SYMATTR InstName R12
SYMATTR Value 47k
SYMBOL res 1216 384 R0
SYMATTR InstName R13
SYMATTR Value 22k
SYMBOL cap 1312 368 R0
SYMATTR InstName C12
SYMATTR Value 220p
SYMBOL npn 1376 240 R0
SYMATTR InstName Q2
SYMATTR Value BC547C
SYMBOL res 1424 320 R0
SYMATTR InstName R14
SYMATTR Value 220
SYMBOL cap 1552 256 R0
SYMATTR InstName C13
SYMATTR Value 4.7p
SYMBOL cap 1552 112 R0
SYMATTR InstName C14
SYMATTR Value 220p
SYMBOL cap 1552 176 R0
SYMATTR InstName C15
SYMATTR Value 15p
SYMBOL ind2 1424 112 R0
SYMATTR InstName L1
SYMATTR Value 160n
SYMATTR Type ind
SYMATTR SpiceLine Rser=2
SYMBOL voltage -32 336 R0
WINDOW 123 0 0 Left 0
WINDOW 39 0 0 Left 0
SYMATTR InstName V2
SYMATTR Value SINE(0 1 100k)
SYMBOL res 1680 272 R0
SYMATTR InstName R15
SYMATTR Value 377
TEXT -16 616 Left 2 !.tran 0 100u 0 0.001u
TEXT 912 696 Left 2 !.model SS9018G NPN(Is=3f xcjc=0.1 Xti=3 Vaf=75 Bf=102 Ne=2 Ise=0.8p Ikf=250m Xtb=1.5 Br=0.3 Nc=2 Isc=0.8p Ikr=10m Rc=3.5 Cjc=1.8p Mjc=.15 Vjc=.8 Fc=.5 Cje=1.5p Mje=0.5 Vje=.8 Tr=2n Tf=110p Itf=13m Vtf=1.7 Xtf=3 Rb=60 Vceo=15 Icrating=50m mfg=Fairchild)\n.model 2SC9018 ako: SS9018G NPN Vceo=15 Icrating=50m
